Version 4
SHEET 1 880 680
WIRE -80 96 -80 -16
WIRE -80 96 -144 96
WIRE 32 96 0 96
WIRE 208 96 112 96
WIRE 368 96 208 96
WIRE 448 96 368 96
WIRE 208 128 208 96
WIRE -144 160 -144 96
WIRE 368 160 368 96
WIRE 208 192 128 192
WIRE 208 208 208 192
WIRE 128 224 128 192
WIRE -144 288 -144 240
WIRE -80 288 -144 288
WIRE 32 288 0 288
WIRE 208 288 208 272
WIRE 208 288 112 288
WIRE 368 288 368 240
WIRE 368 288 208 288
FLAG 128 224 0
FLAG 448 96 V_out
FLAG -80 -16 V_in
SYMBOL cap 192 208 R0
SYMATTR InstName C1
SYMATTR Value 470pF
SYMBOL res 352 144 R0
SYMATTR InstName R1
SYMATTR Value 1000Meg
SYMBOL voltage -144 144 R0
WINDOW 123 -122 58 Left 2
WINDOW 39 -162 91 Left 2
SYMATTR Value2 AC 1
SYMATTR SpiceLine Rser=500k
SYMATTR InstName V1
SYMATTR Value ""
SYMBOL cap 192 128 R0
SYMATTR InstName C2
SYMATTR Value 470pF
SYMBOL ind 128 80 R90
WINDOW 0 5 56 VBottom 2
WINDOW 3 32 56 VTop 2
SYMATTR InstName L1
SYMATTR Value 100H
SYMBOL ind 128 272 R90
WINDOW 0 5 56 VBottom 2
WINDOW 3 32 56 VTop 2
SYMATTR InstName L2
SYMATTR Value 100H
SYMBOL res 16 80 R90
WINDOW 0 0 56 VBottom 2
WINDOW 3 32 56 VTop 2
SYMATTR InstName R2
SYMATTR Value 1k
SYMBOL res 16 272 R90
WINDOW 0 0 56 VBottom 2
WINDOW 3 32 56 VTop 2
SYMATTR InstName R3
SYMATTR Value 1k
TEXT -368 376 Left 2 !.ac dec 100 1 10k
